<?xml version='1.0' encoding='utf-8'?>
<routes xmlns:xsi="http://www.w3.org/2001/XMLSchema-instance" xsi:noNamespaceSchemaLocation="http://sumo.dlr.de/xsd/routes_file.xsd"><route id="r_0" edges="E0" /><flow id="f_0" begin="1.6769373393157476" end="3600.00" color="255,255,255" route="r_0" departSpeed="5.208171219046732" vehsPerHour="1456" departLane="1" /><vehicle id="v_0" depart="12.989325288031822" departSpeed="4.970762108660129" color="255,0,0" route="r_0" /><vehicle id="v_1" depart="23.78837913629883" departSpeed="4.55137974855849" color="0,0,255" route="r_0" /></routes>