<?xml version='1.0' encoding='utf-8'?>
<routes xmlns:xsi="http://www.w3.org/2001/XMLSchema-instance" xsi:noNamespaceSchemaLocation="http://sumo.dlr.de/xsd/routes_file.xsd"><route id="r_0" edges="E0" /><flow id="f_0" begin="1.8595021729022503" end="3600.00" color="255,255,255" route="r_0" departSpeed="5.875688893440681" vehsPerHour="1390" departLane="1" /><vehicle id="v_0" depart="13.05495615298603" departSpeed="4.4814473980394345" color="255,0,0" route="r_0" /><vehicle id="v_1" depart="19.217362728946362" departSpeed="3.2011777833936605" color="0,0,255" route="r_0" /></routes>