<?xml version='1.0' encoding='utf-8'?>
<routes xmlns:xsi="http://www.w3.org/2001/XMLSchema-instance" xsi:noNamespaceSchemaLocation="http://sumo.dlr.de/xsd/routes_file.xsd"><route id="r_0" edges="E0" /><flow id="f_0" begin="2.1899825012962064" end="3600.00" color="255,255,255" route="r_0" departSpeed="5.3127866372297206" vehsPerHour="1635" departLane="1" /><vehicle id="v_0" depart="10.634459869875148" departSpeed="4.291573590545484" color="255,0,0" route="r_0" /><vehicle id="v_1" depart="18.52557309595823" departSpeed="4.3172856748808295" color="0,0,255" route="r_0" /></routes>